1a0q_ligand
     RDKit          3D

 23 23  0  0  0  0  0  0  0  0999 V2000
   13.9034   20.9302   57.3554 C   0  0  2  0  0  0  0  0  0  0  0  0
   13.8228   21.4890   55.9611 C   0  0  0  0  0  0  0  0  0  0  0  0
   13.3333   20.5074   54.9492 C   0  0  0  0  0  0  0  0  0  0  0  0
   13.2129   21.2445   53.6204 C   0  0  0  0  0  0  0  0  0  0  0  0
   11.8923   21.9298   53.4608 C   0  0  0  0  0  0  0  0  0  0  0  0
   16.8309   21.1987   61.8168 C   0  0  0  0  0  0  0  0  0  0  0  0
   17.5658   21.9032   62.7344 C   0  0  0  0  0  0  0  0  0  0  0  0
   17.6354   23.2721   62.6973 C   0  0  0  0  0  0  0  0  0  0  0  0
   16.9243   23.9198   61.6829 C   0  0  0  0  0  0  0  0  0  0  0  0
   16.1900   23.2041   60.7673 C   0  0  0  0  0  0  0  0  0  0  0  0
   16.1164   21.8270   60.7998 C   0  0  0  0  0  0  0  0  0  0  0  0
   12.2706   19.4129   58.4818 C   0  0  0  0  0  0  0  0  0  0  0  0
   10.7683   20.1635   60.3015 C   0  0  0  0  0  0  0  0  0  0  0  0
   10.9892   19.1767   59.1965 C   0  0  0  0  0  0  0  0  0  0  0  0
   11.7471   19.9826   61.4023 C   0  0  0  0  0  0  0  0  0  0  0  0
   16.1228   22.3910   57.7267 O   0  0  0  0  0  0  0  0  0  0  0  0
   14.0614   23.3457   58.9564 O   0  0  0  0  0  0  0  0  0  0  0  0
   15.3707   21.1158   59.8683 O   0  0  0  0  0  0  0  0  0  0  0  0
   13.0798   18.4631   58.3402 O   0  0  0  0  0  0  0  0  0  0  0  0
   12.5115   20.8959   61.8115 O   0  0  0  0  0  0  0  0  0  0  0  0
   11.7805   18.7008   61.9848 O   0  0  0  0  0  0  0  0  0  0  0  0
   12.6219   20.6822   57.9464 N   0  0  0  0  0  0  0  0  0  0  0  0
   14.8658   21.9516   58.4693 P   0  0  1  0  0  5  0  0  0  0  0  0
  1 23  1  0
  1 22  1  0
  1  2  1  6
  2  3  1  0
  3  4  1  0
  4  5  1  0
 22 12  1  0
 12 19  2  0
 12 14  1  0
 14 13  1  0
 13 15  1  0
 15 20  2  0
 15 21  1  0
 23 16  2  0
 23 17  1  1
 23 18  1  0
 18 11  1  0
 11 10  1  0
 11  6  2  0
  6  7  1  0
  7  8  2  0
  8  9  1  0
  9 10  2  0
M  END
$$$$
