1a0q_ligand
     RDKit          3D

 23 23  0  0  0  0  0  0  0  0999 V2000
   13.4720   21.5790   56.8119 C   0  0  2  0  0  0  0  0  0  0  0  0
   13.2635   22.4758   55.6223 C   0  0  0  0  0  0  0  0  0  0  0  0
   12.6906   21.7745   54.4360 C   0  0  0  0  0  0  0  0  0  0  0  0
   11.4737   22.5710   53.9797 C   0  0  0  0  0  0  0  0  0  0  0  0
   11.7906   24.0119   53.7297 C   0  0  0  0  0  0  0  0  0  0  0  0
   17.5201   21.2682   60.2734 C   0  0  0  0  0  0  0  0  0  0  0  0
   18.2665   21.7754   61.3049 C   0  0  0  0  0  0  0  0  0  0  0  0
   17.8548   22.8746   62.0137 C   0  0  0  0  0  0  0  0  0  0  0  0
   16.6402   23.4569   61.6396 C   0  0  0  0  0  0  0  0  0  0  0  0
   15.8990   22.9405   60.6035 C   0  0  0  0  0  0  0  0  0  0  0  0
   16.3082   21.8350   59.8869 C   0  0  0  0  0  0  0  0  0  0  0  0
   12.1235   19.6904   57.7349 C   0  0  0  0  0  0  0  0  0  0  0  0
   10.9671   18.6888   59.6819 C   0  0  0  0  0  0  0  0  0  0  0  0
   10.8504   19.1265   58.2542 C   0  0  0  0  0  0  0  0  0  0  0  0
   11.0034   19.8468   60.6095 C   0  0  0  0  0  0  0  0  0  0  0  0
   15.1598   23.5373   57.5286 O   0  0  0  0  0  0  0  0  0  0  0  0
   13.4222   22.9754   59.3556 O   0  0  0  0  0  0  0  0  0  0  0  0
   15.5494   21.3233   58.8419 O   0  0  0  0  0  0  0  0  0  0  0  0
   13.1278   18.9442   57.6270 O   0  0  0  0  0  0  0  0  0  0  0  0
   10.7526   21.0294   60.2571 O   0  0  0  0  0  0  0  0  0  0  0  0
   11.3422   19.5495   61.9438 O   0  0  0  0  0  0  0  0  0  0  0  0
   12.2532   21.0532   57.3515 N   0  0  0  0  0  0  0  0  0  0  0  0
   14.3978   22.3621   58.1309 P   0  0  1  0  0  5  0  0  0  0  0  0
  1 23  1  0
  1 22  1  0
  1  2  1  6
  2  3  1  0
  3  4  1  0
  4  5  1  0
 22 12  1  0
 12 19  2  0
 12 14  1  0
 14 13  1  0
 13 15  1  0
 15 20  2  0
 15 21  1  0
 23 16  2  0
 23 17  1  1
 23 18  1  0
 18 11  1  0
 11 10  1  0
 11  6  2  0
  6  7  1  0
  7  8  2  0
  8  9  1  0
  9 10  2  0
M  END
$$$$
