1a0q_ligand
     RDKit          3D

 23 23  0  0  0  0  0  0  0  0999 V2000
   13.8566   21.1866   58.5546 C   0  0  2  0  0  0  0  0  0  0  0  0
   13.6412   21.6314   57.1337 C   0  0  0  0  0  0  0  0  0  0  0  0
   13.0641   20.5722   56.2549 C   0  0  0  0  0  0  0  0  0  0  0  0
   12.9383   21.1607   54.8545 C   0  0  0  0  0  0  0  0  0  0  0  0
   12.4188   20.1709   53.8597 C   0  0  0  0  0  0  0  0  0  0  0  0
   17.8738   22.2058   61.3150 C   0  0  0  0  0  0  0  0  0  0  0  0
   18.8012   22.9129   62.0350 C   0  0  0  0  0  0  0  0  0  0  0  0
   18.4349   23.7025   63.0945 C   0  0  0  0  0  0  0  0  0  0  0  0
   17.0740   23.7560   63.4098 C   0  0  0  0  0  0  0  0  0  0  0  0
   16.1517   23.0429   62.6814 C   0  0  0  0  0  0  0  0  0  0  0  0
   16.5145   22.2470   61.6147 C   0  0  0  0  0  0  0  0  0  0  0  0
   12.3240   19.8410   59.9959 C   0  0  0  0  0  0  0  0  0  0  0  0
   10.2754   18.6415   60.6999 C   0  0  0  0  0  0  0  0  0  0  0  0
   11.2215   19.7660   60.9895 C   0  0  0  0  0  0  0  0  0  0  0  0
    9.4557   18.9114   59.4925 C   0  0  0  0  0  0  0  0  0  0  0  0
   16.1580   22.5654   58.5704 O   0  0  0  0  0  0  0  0  0  0  0  0
   14.2682   23.7290   59.8924 O   0  0  0  0  0  0  0  0  0  0  0  0
   15.5721   21.5315   60.8868 O   0  0  0  0  0  0  0  0  0  0  0  0
   13.0075   18.8149   59.7572 O   0  0  0  0  0  0  0  0  0  0  0  0
    9.5377   19.9716   58.8179 O   0  0  0  0  0  0  0  0  0  0  0  0
    8.5541   17.8931   59.1267 O   0  0  0  0  0  0  0  0  0  0  0  0
   12.6402   21.0381   59.2972 N   0  0  0  0  0  0  0  0  0  0  0  0
   14.9644   22.2583   59.4680 P   0  0  1  0  0  5  0  0  0  0  0  0
  1 23  1  0
  1 22  1  0
  1  2  1  6
  2  3  1  0
  3  4  1  0
  4  5  1  0
 22 12  1  0
 12 19  2  0
 12 14  1  0
 14 13  1  0
 13 15  1  0
 15 20  2  0
 15 21  1  0
 23 16  2  0
 23 17  1  1
 23 18  1  0
 18 11  1  0
 11 10  1  0
 11  6  2  0
  6  7  1  0
  7  8  2  0
  8  9  1  0
  9 10  2  0
M  END
$$$$
